Circuit: * C:\Users\Lenovo\Desktop\Projects - Upgrading My Engineering Skills\ltspice-python-sweeper\circuits\Draft1.asc

Direct Newton iteration for .op point succeeded.

Date: Thu Dec 18 18:09:16 2025
Total elapsed time: 0.069 seconds.

tnom = 27
temp = 27
method = modified trap
totiter = 2097
traniter = 2094
tranpoints = 1048
accept = 1048
rejected = 0
matrix size = 2
fillins = 0
solver = Normal
Avg thread counts: 1.5/1.9/1.9/1.5
Matrix Compiler1: off  [0.2]/0.2/0.3
Matrix Compiler2: off  [0.1]/0.3/0.3

