Circuit: * C:\Users\Lenovo\Desktop\Projects - Upgrading My Engineering Skills\ltspice-python-sweeper\circuits\RC-low-pass-filter.asc

.OP point found by inspection.

Date: Thu Dec 18 18:52:48 2025
Total elapsed time: 6.081 seconds.

tnom = 27
temp = 27
method = modified trap
totiter = 400378
traniter = 400378
tranpoints = 200190
accept = 200155
rejected = 35
matrix size = 3
fillins = 0
solver = Normal
Avg thread counts: 1.0/1.0/1.0/1.0
Matrix Compiler1:       3 opcodes  0.3/[0.2]/0.3
Matrix Compiler2: 175 bytes object code size  0.2/0.3/[0.2]

